
     RDKit          3D

 26 26  0  0  0  0  0  0  0  0999 V2000
  141.2330  138.4730  103.2010 C   0  0  0  0  0  0  0  0  0  0  0  0
  141.8600  137.7440  102.1960 C   0  0  0  0  0  0  0  0  0  0  0  0
  142.3090  136.4540  102.4340 C   0  0  0  0  0  0  0  0  0  0  0  0
  142.1310  135.8740  103.6940 C   0  0  0  0  0  0  0  0  0  0  0  0
  141.5060  136.6010  104.6970 C   0  0  0  0  0  0  0  0  0  0  0  0
  141.0620  137.8870  104.4480 C   0  0  0  0  0  0  0  0  0  0  0  0
  142.9230  135.7390  101.4560 O   0  0  0  0  0  0  0  0  0  0  0  0
  142.5720  134.6090  103.9180 O   0  0  0  0  0  0  0  0  0  0  0  0
  140.5120  140.0860  101.5420 O   0  0  0  0  0  0  0  0  0  0  0  0
  137.5800  141.5190  102.8680 C   0  0  0  0  0  0  0  0  0  0  0  0
  138.9430  141.5080  103.4030 N   0  0  0  0  0  0  0  0  0  0  0  0
  139.4410  140.1420  103.6700 C   0  0  0  0  0  0  0  0  0  0  0  0
  140.7440  139.8810  102.9320 C   0  0  1  0  0  0  0  0  0  0  0  0
  142.0010  138.1953  101.2028 H   0  0  0  0  0  0  0  0  0  0  0  0
  141.3634  136.1538  105.6918 H   0  0  0  0  0  0  0  0  0  0  0  0
  140.5661  138.4538  105.2497 H   0  0  0  0  0  0  0  0  0  0  0  0
  143.2388  134.8188  101.6395 H   0  0  0  0  0  0  0  0  0  0  0  0
  142.4493  134.1922  104.8076 H   0  0  0  0  0  0  0  0  0  0  0  0
  139.7755  140.7368  101.4228 H   0  0  0  0  0  0  0  0  0  0  0  0
  136.8598  141.5248  103.6994 H   0  0  0  0  0  0  0  0  0  0  0  0
  137.4354  142.4183  102.2513 H   0  0  0  0  0  0  0  0  0  0  0  0
  137.4209  140.6221  102.2513 H   0  0  0  0  0  0  0  0  0  0  0  0
  139.5685  141.9590  102.7202 H   0  0  0  0  0  0  0  0  0  0  0  0
  139.6107  140.0262  104.7506 H   0  0  0  0  0  0  0  0  0  0  0  0
  138.6891  139.4207  103.3174 H   0  0  0  0  0  0  0  0  0  0  0  0
  141.5264  140.5699  103.2832 H   0  0  0  0  0  0  0  0  0  0  0  0
  2  1  2  0
  3  2  1  0
  4  3  2  0
  5  4  1  0
  6  1  1  0
  6  5  2  0
  7  3  1  0
  8  4  1  0
 11 10  1  0
 12 11  1  0
 13  9  1  0
 13  1  1  0
 13 12  1  0
  2 14  1  0
  5 15  1  0
  6 16  1  0
  7 17  1  0
  8 18  1  0
  9 19  1  0
 10 20  1  0
 10 21  1  0
 10 22  1  0
 11 23  1  0
 12 24  1  0
 12 25  1  0
 13 26  1  1
M  END
$$$$
