
     RDKit          3D

 23 23  0  0  0  0  0  0  0  0999 V2000
  106.3860  121.5170  139.4220 O   0  0  0  0  0  0  0  0  0  0  0  0
  106.9210  121.0460  138.1940 C   0  0  0  0  0  0  0  0  0  0  0  0
  108.2510  120.9250  138.1290 C   0  0  0  0  0  0  0  0  0  0  0  0
  106.1050  120.7150  137.1490 C   0  0  0  0  0  0  0  0  0  0  0  0
  104.6840  120.8360  137.2470 O   0  0  0  0  0  0  0  0  0  0  0  0
  106.6710  120.2460  135.9780 C   0  0  0  0  0  0  0  0  0  0  0  0
  107.9900  120.1270  135.9000 C   0  0  0  0  0  0  0  0  0  0  0  0
  108.8160  120.4570  136.9890 C   0  0  0  0  0  0  0  0  0  0  0  0
  110.2890  120.3070  136.9050 C   0  0  1  0  0  0  0  0  0  0  0  0
  110.5620  119.5560  138.0430 O   0  0  0  0  0  0  0  0  0  0  0  0
  110.7330  119.3850  135.7080 C   0  0  0  0  0  0  0  0  0  0  0  0
  112.2170  119.2850  135.6620 N   0  0  0  0  0  0  0  0  0  0  0  0
  105.4075  121.6259  139.5263 H   0  0  0  0  0  0  0  0  0  0  0  0
  108.8784  121.2015  138.9891 H   0  0  0  0  0  0  0  0  0  0  0  0
  104.1120  120.5904  136.4772 H   0  0  0  0  0  0  0  0  0  0  0  0
  106.0357  119.9750  135.1219 H   0  0  0  0  0  0  0  0  0  0  0  0
  108.4455  119.7638  134.9669 H   0  0  0  0  0  0  0  0  0  0  0  0
  110.7806  121.2849  136.7953 H   0  0  0  0  0  0  0  0  0  0  0  0
  110.3658  120.0957  138.8494 H   0  0  0  0  0  0  0  0  0  0  0  0
  110.3048  118.3809  135.8441 H   0  0  0  0  0  0  0  0  0  0  0  0
  110.3724  119.8213  134.7648 H   0  0  0  0  0  0  0  0  0  0  0  0
  112.5893  119.2599  136.6220 H   0  0  0  0  0  0  0  0  0  0  0  0
  112.4879  118.4238  135.1661 H   0  0  0  0  0  0  0  0  0  0  0  0
  2  1  1  0
  3  2  2  0
  4  2  1  0
  5  4  1  0
  6  4  2  0
  7  6  1  0
  8  7  2  0
  8  3  1  0
  9  8  1  0
 10  9  1  0
 11  9  1  0
 12 11  1  0
  1 13  1  0
  3 14  1  0
  5 15  1  0
  6 16  1  0
  7 17  1  0
  9 18  1  1
 10 19  1  0
 11 20  1  0
 11 21  1  0
 12 22  1  0
 12 23  1  0
M  END
$$$$
