
     RDKit          3D

 12 12  0  0  0  0  0  0  0  0999 V2000
  -62.9860   28.4220    8.1370 O   0  0  0  0  0  0  0  0  0  0  0  0
  -62.2380   27.3080    7.9060 C   0  0  0  0  0  0  0  0  0  0  0  0
  -62.7080   26.2980    7.0740 C   0  0  0  0  0  0  0  0  0  0  0  0
  -60.9950   27.1890    8.5100 C   0  0  0  0  0  0  0  0  0  0  0  0
  -60.5520   28.1880    9.3200 O   0  0  0  0  0  0  0  0  0  0  0  0
  -60.2130   26.0600    8.2880 C   0  0  0  0  0  0  0  0  0  0  0  0
  -60.6790   25.0490    7.4570 C   0  0  0  0  0  0  0  0  0  0  0  0
  -61.9240   25.1690    6.8500 C   0  0  0  0  0  0  0  0  0  0  0  0
  -62.4320   24.0520    5.9410 C   0  0  1  0  0  0  0  0  0  0  0  0
  -61.6180   22.9200    6.0890 O   0  0  0  0  0  0  0  0  0  0  0  0
  -63.8710   23.7120    6.3310 C   0  0  0  0  0  0  0  0  0  0  0  0
  -64.1570   22.3290    5.9990 N   0  0  0  0  0  0  0  0  0  0  0  0
  2  1  1  0
  3  2  1  0
  4  2  2  0
  5  4  1  0
  6  4  1  0
  7  6  2  0
  8  7  1  0
  8  3  2  0
  9  8  1  0
  9 10  1  1
 11  9  1  0
 12 11  1  0
M  END
