epinephrine_docked_v2.pdbqt
 OpenBabel08152617013D

 17 17  0  0  1  0  0  0  0  0999 V2000
  109.7060  119.2810  138.2370 C   0  0  2  0  0  3  0  0  0  0  0  0
  108.2350  119.4840  138.2140 C   0  0  0  0  0  0  0  0  0  0  0  0
  106.1730  119.9320  139.3650 C   0  0  0  0  0  3  0  0  0  0  0  0
  107.5310  119.7050  139.3930 C   0  0  0  0  0  3  0  0  0  0  0  0
  105.5010  119.9320  138.1430 C   0  0  0  0  0  0  0  0  0  0  0  0
  106.2020  119.7020  136.9700 C   0  0  0  0  0  0  0  0  0  0  0  0
  107.5610  119.4720  136.9980 C   0  0  0  0  0  3  0  0  0  0  0  0
  104.1450  120.1680  138.1470 O   0  0  0  0  0  0  0  0  0  0  0  0
  103.7950  120.7410  138.8540 H   0  0  0  0  0  0  0  0  0  0  0  0
  105.6190  119.6960  135.7310 O   0  0  0  0  0  0  0  0  0  0  0  0
  105.1540  118.8830  135.4760 H   0  0  0  0  0  0  0  0  0  0  0  0
  110.4650  120.0750  137.1350 C   0  0  0  0  0  2  0  0  0  0  0  0
  110.9300  121.4320  137.5560 N   0  0  0  0  0  0  0  0  0  0  0  0
  110.0570  122.5480  137.2130 C   0  0  0  0  0  1  0  0  0  0  0  0
  111.0030  121.4600  138.5670 H   0  0  0  0  0  0  0  0  0  0  0  0
  109.8450  117.9030  137.8950 O   0  0  0  0  0  0  0  0  0  0  0  0
  109.1440  117.6510  137.2770 H   0  0  0  0  0  0  0  0  0  0  0  0
  1 12  1  6  0  0  0
  2  1  1  0  0  0  0
  2  4  1  0  0  0  0
  3  4  2  0  0  0  0
  5  8  1  0  0  0  0
  5  3  1  0  0  0  0
  6  7  1  0  0  0  0
  6  5  2  0  0  0  0
  7  2  2  0  0  0  0
  8  9  1  0  0  0  0
 10  6  1  0  0  0  0
 11 10  1  0  0  0  0
 12 13  1  0  0  0  0
 13 15  1  0  0  0  0
 14 13  1  0  0  0  0
 16  1  1  0  0  0  0
 17 16  1  0  0  0  0
M  END
>  <MODEL>
1

>  <REMARK>
 VINA RESULT:      -5.8      0.000      0.000
 SMILES CNC[C@H](O)c1ccc(O)c(O)c1
 SMILES IDX 4 1 6 2 8 3 7 4 9 5 11 6 13 7 10 8 12 10 3 12 2 13 1 14 5 16
 H PARENT 10 9 12 11 2 15 5 17

>  <TORSDO>
F 6

$$$$
