
     RDKit          3D

 13 13  0  0  0  0  0  0  0  0999 V2000
   -1.5970  -12.7030  -48.3120 C   0  0  0  0  0  0  0  0  0  0  0  0
   -0.4210  -12.8680  -49.0380 C   0  0  0  0  0  0  0  0  0  0  0  0
    0.7810  -12.4340  -48.4920 C   0  0  0  0  0  0  0  0  0  0  0  0
    0.8120  -11.8440  -47.2370 C   0  0  0  0  0  0  0  0  0  0  0  0
   -0.3580  -11.6770  -46.5060 C   0  0  0  0  0  0  0  0  0  0  0  0
   -1.5630  -12.1100  -47.0520 C   0  0  0  0  0  0  0  0  0  0  0  0
    1.9690  -12.5610  -49.1420 O   0  0  0  0  0  0  0  0  0  0  0  0
    2.0290  -11.4480  -46.7750 O   0  0  0  0  0  0  0  0  0  0  0  0
   -3.8290  -13.1190  -47.8540 O   0  0  0  0  0  0  0  0  0  0  0  0
   -4.8340  -11.7770  -51.7250 C   0  0  0  0  0  0  0  0  0  0  0  0
   -4.4790  -12.6650  -50.6090 N   0  0  0  0  0  0  0  0  0  0  0  0
   -3.2070  -12.2270  -50.0170 C   0  0  0  0  0  0  0  0  0  0  0  0
   -2.8050  -13.1350  -48.8530 C   0  0  1  0  0  0  0  0  0  0  0  0
  2  1  2  0
  3  2  1  0
  4  3  2  0
  5  4  1  0
  6  5  2  0
  6  1  1  0
  7  3  1  0
  8  4  1  0
 11 10  1  0
 12 11  1  0
 13 12  1  0
 13  9  1  1
 13  1  1  0
M  END
