
     RDKit          3D

 12 12  0  0  0  0  0  0  0  0999 V2000
    2.3211  -14.5765  -48.5193 O   0  0  0  0  0  0  0  0  0  0  0  0
    1.1802  -14.4321  -47.7904 C   0  0  0  0  0  0  0  0  0  0  0  0
   -0.0001  -15.0483  -48.1910 C   0  0  0  0  0  0  0  0  0  0  0  0
    1.2056  -13.6618  -46.6372 C   0  0  0  0  0  0  0  0  0  0  0  0
    2.3700  -13.0677  -46.2610 O   0  0  0  0  0  0  0  0  0  0  0  0
    0.0521  -13.5008  -45.8763 C   0  0  0  0  0  0  0  0  0  0  0  0
   -1.1290  -14.1152  -46.2731 C   0  0  0  0  0  0  0  0  0  0  0  0
   -1.1541  -14.8888  -47.4279 C   0  0  0  0  0  0  0  0  0  0  0  0
   -2.4568  -15.5580  -47.8606 C   0  0  1  0  0  0  0  0  0  0  0  0
   -3.5228  -15.0363  -47.1140 O   0  0  0  0  0  0  0  0  0  0  0  0
   -2.6826  -15.2866  -49.3485 C   0  0  0  0  0  0  0  0  0  0  0  0
   -4.1031  -15.3078  -49.6425 N   0  0  0  0  0  0  0  0  0  0  0  0
  2  1  1  0
  3  2  1  0
  4  2  2  0
  5  4  1  0
  6  4  1  0
  7  6  2  0
  8  7  1  0
  8  3  2  0
  9  8  1  0
  9 10  1  1
 11  9  1  0
 12 11  1  0
M  END
