
     RDKit          3D

 12 12  0  0  0  0  0  0  0  0999 V2000
  143.3690  142.9049  168.2961 O   0  0  0  0  0  0  0  0  0  0  0  0
  143.3452  142.2127  167.0802 C   0  0  0  0  0  0  0  0  0  0  0  0
  144.5228  141.9449  166.4012 C   0  0  0  0  0  0  0  0  0  0  0  0
  142.1348  141.7982  166.5616 C   0  0  0  0  0  0  0  0  0  0  0  0
  140.9555  142.0827  167.2607 O   0  0  0  0  0  0  0  0  0  0  0  0
  142.0916  141.1132  165.3583 C   0  0  0  0  0  0  0  0  0  0  0  0
  143.2687  140.8439  164.6794 C   0  0  0  0  0  0  0  0  0  0  0  0
  144.4823  141.2541  165.2003 C   0  0  0  0  0  0  0  0  0  0  0  0
  145.7783  140.9571  164.4475 C   0  0  1  0  0  0  0  0  0  0  0  0
  146.8548  141.5036  165.1515 O   0  0  0  0  0  0  0  0  0  0  0  0
  145.9921  139.4531  164.3095 C   0  0  0  0  0  0  0  0  0  0  0  0
  147.4102  139.1705  164.1875 N   0  0  0  0  0  0  0  0  0  0  0  0
  2  1  1  0
  3  2  1  0
  4  2  2  0
  5  4  1  0
  6  4  1  0
  7  6  2  0
  8  7  1  0
  8  3  2  0
  9  8  1  0
  9 10  1  1
 11  9  1  0
 12 11  1  0
M  END
