
     RDKit          3D

 12 12  0  0  0  0  0  0  0  0999 V2000
  116.6860  121.4210  145.4270 O   0  0  0  0  0  0  0  0  0  0  0  0
  117.3360  121.7770  144.2400 C   0  0  0  0  0  0  0  0  0  0  0  0
  118.7100  121.9530  144.2170 C   0  0  0  0  0  0  0  0  0  0  0  0
  116.5940  121.9520  143.0890 C   0  0  0  0  0  0  0  0  0  0  0  0
  115.2060  121.7740  143.1340 O   0  0  0  0  0  0  0  0  0  0  0  0
  117.2200  122.3060  141.9050 C   0  0  0  0  0  0  0  0  0  0  0  0
  118.5940  122.4810  141.8810 C   0  0  0  0  0  0  0  0  0  0  0  0
  119.3390  122.3010  143.0320 C   0  0  0  0  0  0  0  0  0  0  0  0
  120.8540  122.4970  143.0020 C   0  0  1  0  0  0  0  0  0  0  0  0
  121.3690  122.2990  144.2860 O   0  0  0  0  0  0  0  0  0  0  0  0
  121.5100  121.5030  142.0490 C   0  0  0  0  0  0  0  0  0  0  0  0
  122.8790  121.2590  142.4640 N   0  0  0  0  0  0  0  0  0  0  0  0
  2  1  1  0
  3  2  1  0
  4  2  2  0
  5  4  1  0
  6  4  1  0
  7  6  2  0
  8  7  1  0
  8  3  2  0
  9  8  1  0
  9 10  1  1
 11  9  1  0
 12 11  1  0
M  END
