
     RDKit          3D

 12 12  0  0  0  0  0  0  0  0999 V2000
  -63.2694   28.3779    8.0574 O   0  0  0  0  0  0  0  0  0  0  0  0
  -62.5213   27.2635    7.8288 C   0  0  0  0  0  0  0  0  0  0  0  0
  -62.9915   26.2514    6.9995 C   0  0  0  0  0  0  0  0  0  0  0  0
  -61.2781   27.1462    8.4326 C   0  0  0  0  0  0  0  0  0  0  0  0
  -60.8349   28.1472    9.2400 O   0  0  0  0  0  0  0  0  0  0  0  0
  -60.4960   26.0168    8.2131 C   0  0  0  0  0  0  0  0  0  0  0  0
  -60.9621   25.0037    7.3847 C   0  0  0  0  0  0  0  0  0  0  0  0
  -62.2074   25.1220    6.7779 C   0  0  0  0  0  0  0  0  0  0  0  0
  -62.7155   24.0027    5.8719 C   0  0  1  0  0  0  0  0  0  0  0  0
  -61.9013   22.8712    6.0223 O   0  0  0  0  0  0  0  0  0  0  0  0
  -64.1543   23.6634    6.2633 C   0  0  0  0  0  0  0  0  0  0  0  0
  -64.4402   22.2795    5.9347 N   0  0  0  0  0  0  0  0  0  0  0  0
  2  1  1  0
  3  2  1  0
  4  2  2  0
  5  4  1  0
  6  4  1  0
  7  6  2  0
  8  7  1  0
  8  3  2  0
  9  8  1  0
  9 10  1  1
 11  9  1  0
 12 11  1  0
M  END
