
     RDKit          3D

 13 13  0  0  0  0  0  0  0  0999 V2000
  -62.2800   25.1450    6.8140 C   0  0  0  0  0  0  0  0  0  0  0  0
  -63.0470   26.2550    6.9570 C   0  0  0  0  0  0  0  0  0  0  0  0
  -62.5720   27.3370    7.7380 C   0  0  0  0  0  0  0  0  0  0  0  0
  -61.3140   27.2650    8.3640 C   0  0  0  0  0  0  0  0  0  0  0  0
  -60.5530   26.1520    8.2210 C   0  0  0  0  0  0  0  0  0  0  0  0
  -61.0190   25.0730    7.4470 C   0  0  0  0  0  0  0  0  0  0  0  0
  -63.3580   28.5050    7.8980 O   0  0  0  0  0  0  0  0  0  0  0  0
  -60.8300   28.4040    9.1760 O   0  0  0  0  0  0  0  0  0  0  0  0
  -61.7080   23.0140    5.7000 O   0  0  0  0  0  0  0  0  0  0  0  0
  -65.3830   21.3450    6.6900 C   0  0  0  0  0  0  0  0  0  0  0  0
  -64.6900   22.2740    5.8660 N   0  0  0  0  0  0  0  0  0  0  0  0
  -63.9150   23.2040    6.7450 C   0  0  0  0  0  0  0  0  0  0  0  0
  -62.7880   23.9240    5.9490 C   0  0  1  0  0  0  0  0  0  0  0  0
  2  1  2  0
  3  2  1  0
  4  3  2  0
  5  4  1  0
  6  5  2  0
  6  1  1  0
  7  3  1  0
  8  4  1  0
 11 10  1  0
 12 11  1  0
 13 12  1  0
 13  9  1  1
 13  1  1  0
M  END
