
     RDKit          3D

 13 13  0  0  0  0  0  0  0  0999 V2000
  143.8830  141.2600  165.2600 C   0  0  0  0  0  0  0  0  0  0  0  0
  143.7970  141.5290  166.6200 C   0  0  0  0  0  0  0  0  0  0  0  0
  142.5660  141.5560  167.2590 C   0  0  0  0  0  0  0  0  0  0  0  0
  141.3980  141.3090  166.5320 C   0  0  0  0  0  0  0  0  0  0  0  0
  141.4840  141.0400  165.1750 C   0  0  0  0  0  0  0  0  0  0  0  0
  142.7160  141.0170  164.5480 C   0  0  0  0  0  0  0  0  0  0  0  0
  142.4750  141.8190  168.5880 O   0  0  0  0  0  0  0  0  0  0  0  0
  140.1960  141.3390  167.1620 O   0  0  0  0  0  0  0  0  0  0  0  0
  146.2350  141.8240  165.3870 O   0  0  0  0  0  0  0  0  0  0  0  0
  147.3310  138.3910  163.2130 C   0  0  0  0  0  0  0  0  0  0  0  0
  146.9280  139.7570  163.5520 N   0  0  0  0  0  0  0  0  0  0  0  0
  145.6470  139.7990  164.2800 C   0  0  0  0  0  0  0  0  0  0  0  0
  145.2310  141.2320  164.5700 C   0  0  1  0  0  0  0  0  0  0  0  0
  2  1  2  0
  3  2  1  0
  4  3  2  0
  5  4  1  0
  6  5  2  0
  6  1  1  0
  7  3  1  0
  8  4  1  0
 11 10  1  0
 12 11  1  0
 13 12  1  0
 13  1  1  0
 13  9  1  1
M  END
