
     RDKit          3D

 13 13  0  0  0  0  0  0  0  0999 V2000
  126.4830  114.7090  160.4080 C   0  0  0  0  0  0  0  0  0  0  0  0
  125.7350  114.4730  161.5300 C   0  0  0  0  0  0  0  0  0  0  0  0
  124.3520  114.4790  161.4410 C   0  0  0  0  0  0  0  0  0  0  0  0
  123.7310  114.7230  160.1970 C   0  0  0  0  0  0  0  0  0  0  0  0
  124.4480  114.9470  159.1090 C   0  0  0  0  0  0  0  0  0  0  0  0
  125.8580  114.9480  159.1950 C   0  0  0  0  0  0  0  0  0  0  0  0
  123.4900  114.2260  162.6490 O   0  0  0  0  0  0  0  0  0  0  0  0
  122.3160  114.7250  160.1400 O   0  0  0  0  0  0  0  0  0  0  0  0
  128.5170  115.2380  159.2310 O   0  0  0  0  0  0  0  0  0  0  0  0
  130.1780  116.2710  163.1550 C   0  0  0  0  0  0  0  0  0  0  0  0
  129.8770  115.4110  162.0910 N   0  0  0  0  0  0  0  0  0  0  0  0
  128.5220  115.6850  161.6130 C   0  0  0  0  0  0  0  0  0  0  0  0
  128.0470  114.7130  160.4930 C   0  0  1  0  0  0  0  0  0  0  0  0
  2  1  2  0
  3  2  1  0
  4  3  2  0
  5  4  1  0
  6  5  2  0
  6  1  1  0
  7  3  1  0
  8  4  1  0
 11 10  1  0
 12 11  1  0
 13 12  1  0
 13  9  1  6
 13  1  1  0
M  END
