
     RDKit          3D

 12 12  0  0  0  0  0  0  0  0999 V2000
  124.5494  114.9895  166.0767 O   0  0  0  0  0  0  0  0  0  0  0  0
  125.4701  115.3398  165.1368 C   0  0  0  0  0  0  0  0  0  0  0  0
  126.8283  115.1569  165.3716 C   0  0  0  0  0  0  0  0  0  0  0  0
  125.0393  115.8827  163.9353 C   0  0  0  0  0  0  0  0  0  0  0  0
  123.7064  116.0531  163.7237 O   0  0  0  0  0  0  0  0  0  0  0  0
  125.9619  116.2474  162.9600 C   0  0  0  0  0  0  0  0  0  0  0  0
  127.3197  116.0657  163.1907 C   0  0  0  0  0  0  0  0  0  0  0  0
  127.7516  115.5199  164.3942 C   0  0  0  0  0  0  0  0  0  0  0  0
  129.2459  115.3268  164.6430 C   0  0  1  0  0  0  0  0  0  0  0  0
  129.9771  116.0097  163.6608 O   0  0  0  0  0  0  0  0  0  0  0  0
  129.5929  115.8781  166.0265 C   0  0  0  0  0  0  0  0  0  0  0  0
  130.9777  116.3099  166.0509 N   0  0  0  0  0  0  0  0  0  0  0  0
  2  1  1  0
  3  2  1  0
  4  2  2  0
  5  4  1  0
  6  4  1  0
  7  6  2  0
  8  7  1  0
  8  3  2  0
  9  8  1  0
  9 10  1  6
 11  9  1  0
 12 11  1  0
M  END
